DSSFiles_Dutch/DutchFeederLines.dss
New  Line.LINE1	Phases=3	Bus1=1.1.2.3	Bus2=2.1.2.3	LineCode=GPLKh_4_50_Cusvm_4_6 		Length=17.00	Units=m
New  Line.LINE2	Phases=3	Bus1=2.1.2.3	Bus2=3.1.2.3	LineCode=GPLKh_4_50_Cusvm_4_6 		Length=9.00	Units=m
New  Line.LINE3	Phases=3	Bus1=3.1.2.3	Bus2=301.1.2.3	LineCode=GPLKh_4_25_Curm_4_2p5 		Length=23.00	Units=m
New  Line.LINE4	Phases=3	Bus1=2.1.2.3	Bus2=4.1.2.3	LineCode=GPLKh_4_50_Cusvm_4_6 		Length=9.00	Units=m
New  Line.LINE5	Phases=3	Bus1=2.1.2.3	Bus2=5.1.2.3	LineCode=GPLKh_4_50_Cusvm_4_6 		Length=6.00	Units=m
New  Line.LINE6	Phases=3	Bus1=4.1.2.3	Bus2=6.1.2.3	LineCode=GPLKh_4_50_Cusvm_4_6 		Length=3.00	Units=m
New  Line.LINE7	Phases=3	Bus1=5.1.2.3	Bus2=7.1.2.3	LineCode=GPLKh_4_50_Cusvm_4_6 		Length=2.00	Units=m
New  Line.LINE8	Phases=3	Bus1=7.1.2.3	Bus2=701.1.2.3	LineCode=GPLKh_4_25_Curm_4_2p5 		Length=33.00	Units=m
New  Line.LINE9	Phases=3	Bus1=7.1.2.3	Bus2=8.1.2.3	LineCode=GPLKh_4_50_Cusvm_4_6 		Length=6.00	Units=m
New  Line.LINE10	Phases=3	Bus1=8.1.2.3	Bus2=801.1.2.3	LineCode=GPLKh_4_25_Curm_4_2p5 		Length=22.00	Units=m
New  Line.LINE11	Phases=3	Bus1=6.1.2.3	Bus2=9.1.2.3	LineCode=GPLKh_4_50_Cusvm_4_6 		Length=3.00	Units=m
New  Line.LINE12	Phases=3	Bus1=8.1.2.3	Bus2=10.1.2.3	LineCode=GPLKh_4_50_Cusvm_4_6 		Length=7.00	Units=m
New  Line.LINE13	Phases=3	Bus1=6.1.2.3	Bus2=11.1.2.3	LineCode=GPLKh_4_50_Cusvm_4_6 		Length=6.00	Units=m
New  Line.LINE14	Phases=3	Bus1=9.1.2.3	Bus2=12.1.2.3	LineCode=GPLKh_4_50_Cusvm_4_6 		Length=9.00	Units=m
New  Line.LINE15	Phases=3	Bus1=12.1.2.3	Bus2=13.1.2.3	LineCode=GPLKh_4_50_Cusvm_4_6 		Length=6.00	Units=m
New  Line.LINE16	Phases=3	Bus1=13.1.2.3	Bus2=1301.1.2.3	LineCode=GPLKh_4_25_Curm_4_2p5 		Length=2.00	Units=m
New  Line.LINE17	Phases=3	Bus1=9.1.2.3	Bus2=14.1.2.3	LineCode=GPLKh_4_50_Cusvm_4_6 		Length=5.00	Units=m
New  Line.LINE18	Phases=3	Bus1=14.1.2.3	Bus2=1401.1.2.3	LineCode=GPLKh_4_25_Curm_4_2p5 		Length=24.00	Units=m
New  Line.LINE19	Phases=3	Bus1=6.1.2.3	Bus2=15.1.2.3	LineCode=GPLKh_4_50_Cusvm_4_6 		Length=9.00	Units=m
New  Line.LINE20	Phases=3	Bus1=15.1.2.3	Bus2=1501.1.2.3	LineCode=GPLKh_4_25_Curm_4_2p5 		Length=1.00	Units=m
New  Line.LINE21	Phases=3	Bus1=12.1.2.3	Bus2=16.1.2.3	LineCode=GPLKh_4_50_Cusvm_4_6 		Length=4.00	Units=m
New  Line.LINE22	Phases=3	Bus1=10.1.2.3	Bus2=17.1.2.3	LineCode=GPLKh_4_50_Cusvm_4_6 		Length=9.00	Units=m
New  Line.LINE23	Phases=3	Bus1=17.1.2.3	Bus2=1701.1.2.3	LineCode=GPLKh_4_25_Curm_4_2p5 		Length=7.00	Units=m
New  Line.LINE24	Phases=3	Bus1=14.1.2.3	Bus2=18.1.2.3	LineCode=GPLKh_4_50_Cusvm_4_6 		Length=2.00	Units=m
New  Line.LINE25	Phases=3	Bus1=18.1.2.3	Bus2=1801.1.2.3	LineCode=GPLKh_4_25_Curm_4_2p5 		Length=34.00	Units=m
New  Line.LINE26	Phases=3	Bus1=8.1.2.3	Bus2=19.1.2.3	LineCode=GPLKh_4_50_Cusvm_4_6 		Length=3.00	Units=m
New  Line.LINE27	Phases=3	Bus1=19.1.2.3	Bus2=1901.1.2.3	LineCode=GPLKh_4_25_Curm_4_2p5 		Length=15.00	Units=m
New  Line.LINE28	Phases=3	Bus1=16.1.2.3	Bus2=20.1.2.3	LineCode=GPLKh_4_50_Cusvm_4_6 		Length=7.00	Units=m
New  Line.LINE29	Phases=3	Bus1=20.1.2.3	Bus2=2001.1.2.3	LineCode=GPLKh_4_25_Curm_4_2p5 		Length=37.00	Units=m
New  Line.LINE30	Phases=3	Bus1=13.1.2.3	Bus2=21.1.2.3	LineCode=GPLKh_4_50_Cusvm_4_6 		Length=4.00	Units=m
New  Line.LINE31	Phases=3	Bus1=21.1.2.3	Bus2=2101.1.2.3	LineCode=GPLKh_4_6_Curm_4_2p5 		Length=3.00	Units=m
New  Line.LINE32	Phases=3	Bus1=19.1.2.3	Bus2=22.1.2.3	LineCode=GPLKh_4_50_Cusvm_4_6 		Length=7.00	Units=m
New  Line.LINE33	Phases=3	Bus1=22.1.2.3	Bus2=2201.1.2.3	LineCode=GPLKh_4_6_Curm_4_2p5 		Length=5.00	Units=m
New  Line.LINE34	Phases=3	Bus1=11.1.2.3	Bus2=23.1.2.3	LineCode=GPLKh_4_50_Cusvm_4_6 		Length=5.00	Units=m
New  Line.LINE35	Phases=3	Bus1=23.1.2.3	Bus2=2301.1.2.3	LineCode=GPLKh_4_6_Curm_4_2p5 		Length=37.00	Units=m
New  Line.LINE36	Phases=3	Bus1=18.1.2.3	Bus2=24.1.2.3	LineCode=GPLKh_4_50_Cusvm_4_6 		Length=9.00	Units=m
New  Line.LINE37	Phases=3	Bus1=24.1.2.3	Bus2=2401.1.2.3	LineCode=GPLKh_4_6_Curm_4_2p5 		Length=8.00	Units=m
New  Line.LINE38	Phases=3	Bus1=21.1.2.3	Bus2=25.1.2.3	LineCode=GPLKh_4_50_Cusvm_4_6 		Length=3.00	Units=m
New  Line.LINE39	Phases=3	Bus1=25.1.2.3	Bus2=2501.1.2.3	LineCode=GPLKh_4_6_Curm_4_2p5 		Length=30.00	Units=m
New  Line.LINE40	Phases=3	Bus1=25.1.2.3	Bus2=26.1.2.3	LineCode=GPLKh_4_50_Cusvm_4_6 		Length=4.00	Units=m
New  Line.LINE41	Phases=3	Bus1=26.1.2.3	Bus2=2601.1.2.3	LineCode=GPLKh_4_6_Curm_4_2p5 		Length=35.00	Units=m
New  Line.LINE42	Phases=3	Bus1=22.1.2.3	Bus2=27.1.2.3	LineCode=GPLKh_4_50_Cusvm_4_6 		Length=5.00	Units=m
New  Line.LINE43	Phases=3	Bus1=27.1.2.3	Bus2=2701.1.2.3	LineCode=GPLKh_4_6_Curm_4_2p5 		Length=14.00	Units=m
New  Line.LINE44	Phases=3	Bus1=20.1.2.3	Bus2=28.1.2.3	LineCode=GPLKh_4_50_Cusvm_4_6 		Length=1.00	Units=m
New  Line.LINE45	Phases=3	Bus1=28.1.2.3	Bus2=2801.1.2.3	LineCode=GPLKh_4_6_Curm_4_2p5 		Length=40.00	Units=m
New  Line.LINE46	Phases=3	Bus1=24.1.2.3	Bus2=29.1.2.3	LineCode=GPLKh_4_50_Cusvm_4_6 		Length=6.00	Units=m
New  Line.LINE47	Phases=3	Bus1=29.1.2.3	Bus2=2901.1.2.3	LineCode=GPLKh_4_6_Curm_4_2p5 		Length=37.00	Units=m
New  Line.LINE48	Phases=3	Bus1=17.1.2.3	Bus2=30.1.2.3	LineCode=GPLKh_4_50_Cusvm_4_6 		Length=3.00	Units=m
New  Line.LINE49	Phases=3	Bus1=30.1.2.3	Bus2=3001.1.2.3	LineCode=GPLKh_4_6_Curm_4_2p5 		Length=17.00	Units=m
New  Line.LINE50	Phases=3	Bus1=29.1.2.3	Bus2=31.1.2.3	LineCode=GPLKh_4_50_Cusvm_4_6 		Length=6.00	Units=m
New  Line.LINE51	Phases=3	Bus1=31.1.2.3	Bus2=3101.1.2.3	LineCode=GPLKh_4_6_Curm_4_2p5 		Length=27.00	Units=m
New  Line.LINE52	Phases=3	Bus1=4.1.2.3	Bus2=32.1.2.3	LineCode=GPLKh_4_50_Cusvm_4_6 		Length=1.00	Units=m
New  Line.LINE53	Phases=3	Bus1=32.1.2.3	Bus2=3201.1.2.3	LineCode=GPLKh_4_6_Curm_4_2p5 		Length=39.00	Units=m
New  Line.LINE54	Phases=3	Bus1=27.1.2.3	Bus2=33.1.2.3	LineCode=GPLKh_4_50_Cusvm_4_6 		Length=3.00	Units=m
New  Line.LINE55	Phases=3	Bus1=33.1.2.3	Bus2=3301.1.2.3	LineCode=GPLKh_4_6_Curm_4_2p5 		Length=35.00	Units=m
New  Line.LINE56	Phases=3	Bus1=15.1.2.3	Bus2=34.1.2.3	LineCode=GPLKh_4_50_Cusvm_4_6 		Length=1.00	Units=m
New  Line.LINE57	Phases=3	Bus1=34.1.2.3	Bus2=3401.1.2.3	LineCode=GPLKh_4_6_Curm_4_2p5 		Length=25.00	Units=m
New  Line.LINE58	Phases=3	Bus1=32.1.2.3	Bus2=35.1.2.3	LineCode=GPLKh_4_50_Cusvm_4_6 		Length=9.00	Units=m
New  Line.LINE59	Phases=3	Bus1=35.1.2.3	Bus2=3501.1.2.3	LineCode=GPLKh_4_6_Curm_4_2p5 		Length=29.00	Units=m
New  Line.LINE60	Phases=3	Bus1=33.1.2.3	Bus2=36.1.2.3	LineCode=GPLKh_4_50_Cusvm_4_6 		Length=8.00	Units=m
New  Line.LINE61	Phases=3	Bus1=36.1.2.3	Bus2=3601.1.2.3	LineCode=GPLKh_4_6_Curm_4_2p5 		Length=15.00	Units=m
New  Line.LINE62	Phases=3	Bus1=35.1.2.3	Bus2=37.1.2.3	LineCode=GPLKh_4_50_Cusvm_4_6 		Length=7.00	Units=m
New  Line.LINE63	Phases=3	Bus1=37.1.2.3	Bus2=3701.1.2.3	LineCode=GPLKh_4_6_Curm_4_2p5 		Length=33.00	Units=m
New  Line.LINE64	Phases=3	Bus1=23.1.2.3	Bus2=38.1.2.3	LineCode=GPLKh_4_50_Cusvm_4_6 		Length=1.00	Units=m
New  Line.LINE65	Phases=3	Bus1=38.1.2.3	Bus2=3801.1.2.3	LineCode=GPLKh_4_6_Curm_4_2p5 		Length=29.00	Units=m
New  Line.LINE66	Phases=3	Bus1=34.1.2.3	Bus2=39.1.2.3	LineCode=GPLKh_4_50_Cusvm_4_6 		Length=5.00	Units=m
New  Line.LINE67	Phases=3	Bus1=39.1.2.3	Bus2=3901.1.2.3	LineCode=GPLKh_4_6_Curm_4_2p5 		Length=29.00	Units=m
New  Line.LINE68	Phases=3	Bus1=37.1.2.3	Bus2=40.1.2.3	LineCode=GPLKh_4_50_Cusvm_4_6 		Length=1.00	Units=m
New  Line.LINE69	Phases=3	Bus1=40.1.2.3	Bus2=4001.1.2.3	LineCode=GPLKh_4_6_Curm_4_2p5 		Length=23.00	Units=m
New  Line.LINE70	Phases=3	Bus1=36.1.2.3	Bus2=41.1.2.3	LineCode=GPLKh_4_50_Cusvm_4_6 		Length=1.00	Units=m
New  Line.LINE71	Phases=3	Bus1=41.1.2.3	Bus2=4101.1.2.3	LineCode=GPLKh_4_6_Curm_4_2p5 		Length=24.00	Units=m
New  Line.LINE72	Phases=3	Bus1=41.1.2.3	Bus2=42.1.2.3	LineCode=GPLKh_4_50_Cusvm_4_6 		Length=3.00	Units=m
New  Line.LINE73	Phases=3	Bus1=42.1.2.3	Bus2=4201.1.2.3	LineCode=GPLKh_4_6_Curm_4_2p5 		Length=16.00	Units=m
New  Line.LINE74	Phases=3	Bus1=39.1.2.3	Bus2=43.1.2.3	LineCode=GPLKh_4_50_Cusvm_4_6 		Length=10.00	Units=m
New  Line.LINE75	Phases=3	Bus1=43.1.2.3	Bus2=4301.1.2.3	LineCode=GPLKh_4_6_Curm_4_2p5 		Length=7.00	Units=m
New  Line.LINE76	Phases=3	Bus1=43.1.2.3	Bus2=44.1.2.3	LineCode=GPLKh_4_50_Cusvm_4_6 		Length=9.00	Units=m
New  Line.LINE77	Phases=3	Bus1=44.1.2.3	Bus2=4401.1.2.3	LineCode=GPLKh_4_6_Curm_4_2p5 		Length=18.00	Units=m
New  Line.LINE78	Phases=3	Bus1=30.1.2.3	Bus2=45.1.2.3	LineCode=GPLKh_4_50_Cusvm_4_6 		Length=6.00	Units=m
New  Line.LINE79	Phases=3	Bus1=45.1.2.3	Bus2=4501.1.2.3	LineCode=GPLKh_4_6_Curm_4_2p5 		Length=6.00	Units=m
New  Line.LINE80	Phases=3	Bus1=26.1.2.3	Bus2=46.1.2.3	LineCode=GPLKh_4_50_Cusvm_4_6 		Length=6.00	Units=m
New  Line.LINE81	Phases=3	Bus1=46.1.2.3	Bus2=4601.1.2.3	LineCode=GPLKh_4_6_Curm_4_2p5 		Length=24.00	Units=m
New  Line.LINE82	Phases=3	Bus1=38.1.2.3	Bus2=47.1.2.3	LineCode=GPLKh_4_50_Cusvm_4_6 		Length=5.00	Units=m
New  Line.LINE83	Phases=3	Bus1=47.1.2.3	Bus2=4701.1.2.3	LineCode=GPLKh_4_6_Curm_4_2p5 		Length=33.00	Units=m
New  Line.LINE84	Phases=3	Bus1=45.1.2.3	Bus2=48.1.2.3	LineCode=GPLKh_4_50_Cusvm_4_6 		Length=7.00	Units=m
New  Line.LINE85	Phases=3	Bus1=48.1.2.3	Bus2=4801.1.2.3	LineCode=GPLKh_4_6_Curm_4_2p5 		Length=31.00	Units=m
New  Line.LINE86	Phases=3	Bus1=44.1.2.3	Bus2=49.1.2.3	LineCode=GPLKh_4_50_Cusvm_4_6 		Length=2.00	Units=m
New  Line.LINE87	Phases=3	Bus1=49.1.2.3	Bus2=4901.1.2.3	LineCode=GPLKh_4_6_Curm_4_2p5 		Length=40.00	Units=m
New  Line.LINE88	Phases=3	Bus1=42.1.2.3	Bus2=50.1.2.3	LineCode=GPLKh_4_50_Cusvm_4_6 		Length=4.00	Units=m
New  Line.LINE89	Phases=3	Bus1=50.1.2.3	Bus2=5001.1.2.3	LineCode=GPLKh_4_6_Curm_4_2p5 		Length=31.00	Units=m
New  Line.LINE90	Phases=3	Bus1=47.1.2.3	Bus2=51.1.2.3	LineCode=GPLKh_4_50_Cusvm_4_6 		Length=2.00	Units=m
New  Line.LINE91	Phases=3	Bus1=51.1.2.3	Bus2=5101.1.2.3	LineCode=GPLKh_4_6_Curm_4_2p5 		Length=11.00	Units=m
New  Line.LINE92	Phases=3	Bus1=49.1.2.3	Bus2=52.1.2.3	LineCode=GPLKh_4_50_Cusvm_4_6 		Length=4.00	Units=m
New  Line.LINE93	Phases=3	Bus1=52.1.2.3	Bus2=5201.1.2.3	LineCode=GPLKh_4_6_Curm_4_2p5 		Length=31.00	Units=m
New  Line.LINE94	Phases=3	Bus1=52.1.2.3	Bus2=53.1.2.3	LineCode=GPLKh_4_50_Cusvm_4_6 		Length=3.00	Units=m
New  Line.LINE95	Phases=3	Bus1=53.1.2.3	Bus2=5301.1.2.3	LineCode=GPLKh_4_6_Curm_4_2p5 		Length=3.00	Units=m
New  Line.LINE96	Phases=3	Bus1=31.1.2.3	Bus2=54.1.2.3	LineCode=GPLKh_4_50_Cusvm_4_6 		Length=10.00	Units=m
New  Line.LINE97	Phases=3	Bus1=54.1.2.3	Bus2=5401.1.2.3	LineCode=GPLKh_4_10_Curm_4_2p5 		Length=3.00	Units=m
New  Line.LINE98	Phases=3	Bus1=51.1.2.3	Bus2=55.1.2.3	LineCode=GPLKh_4_50_Cusvm_4_6 		Length=9.00	Units=m
New  Line.LINE99	Phases=3	Bus1=55.1.2.3	Bus2=5501.1.2.3	LineCode=GPLKh_4_10_Curm_4_2p5 		Length=37.00	Units=m
New  Line.LINE100	Phases=3	Bus1=46.1.2.3	Bus2=56.1.2.3	LineCode=GPLKh_4_50_Cusvm_4_6 		Length=9.00	Units=m
New  Line.LINE101	Phases=3	Bus1=56.1.2.3	Bus2=5601.1.2.3	LineCode=GPLKh_4_10_Curm_4_2p5 		Length=6.00	Units=m
New  Line.LINE102	Phases=3	Bus1=28.1.2.3	Bus2=57.1.2.3	LineCode=GPLKh_4_50_Cusvm_4_6 		Length=3.00	Units=m
New  Line.LINE103	Phases=3	Bus1=57.1.2.3	Bus2=5701.1.2.3	LineCode=GPLKh_4_10_Curm_4_2p5 		Length=4.00	Units=m
New  Line.LINE104	Phases=3	Bus1=53.1.2.3	Bus2=58.1.2.3	LineCode=GPLKh_4_50_Cusvm_4_6 		Length=2.00	Units=m
New  Line.LINE105	Phases=3	Bus1=58.1.2.3	Bus2=5801.1.2.3	LineCode=GPLKh_4_10_Curm_4_2p5 		Length=33.00	Units=m
New  Line.LINE106	Phases=3	Bus1=56.1.2.3	Bus2=59.1.2.3	LineCode=GPLKh_4_50_Cusvm_4_6 		Length=2.00	Units=m
New  Line.LINE107	Phases=3	Bus1=59.1.2.3	Bus2=5901.1.2.3	LineCode=GPLKh_4_10_Curm_4_2p5 		Length=24.00	Units=m
New  Line.LINE108	Phases=3	Bus1=40.1.2.3	Bus2=60.1.2.3	LineCode=GPLKh_4_50_Cusvm_4_6 		Length=4.00	Units=m
New  Line.LINE109	Phases=3	Bus1=60.1.2.3	Bus2=6001.1.2.3	LineCode=GPLKh_4_10_Curm_4_2p5 		Length=5.00	Units=m
New  Line.LINE110	Phases=3	Bus1=48.1.2.3	Bus2=61.1.2.3	LineCode=GPLKh_4_50_Cusvm_4_6 		Length=3.00	Units=m
New  Line.LINE111	Phases=3	Bus1=61.1.2.3	Bus2=6101.1.2.3	LineCode=GPLKh_4_6_Curm_4_2p5 		Length=38.00	Units=m
New  Line.LINE112	Phases=3	Bus1=59.1.2.3	Bus2=62.1.2.3	LineCode=GPLKh_4_50_Cusvm_4_6 		Length=3.00	Units=m
New  Line.LINE113	Phases=3	Bus1=62.1.2.3	Bus2=6201.1.2.3	LineCode=GPLKh_4_6_Curm_4_2p5 		Length=9.00	Units=m
New  Line.LINE114	Phases=3	Bus1=61.1.2.3	Bus2=63.1.2.3	LineCode=GPLKh_4_50_Cusvm_4_6 		Length=2.00	Units=m
New  Line.LINE115	Phases=3	Bus1=63.1.2.3	Bus2=6301.1.2.3	LineCode=GPLKh_4_6_Curm_4_2p5 		Length=32.00	Units=m
New  Line.LINE116	Phases=3	Bus1=63.1.2.3	Bus2=64.1.2.3	LineCode=GPLKh_4_50_Cusvm_4_6 		Length=4.00	Units=m
New  Line.LINE117	Phases=3	Bus1=64.1.2.3	Bus2=6401.1.2.3	LineCode=GPLKh_4_6_Curm_4_2p5 		Length=12.00	Units=m
New  Line.LINE118	Phases=3	Bus1=55.1.2.3	Bus2=65.1.2.3	LineCode=GPLKh_4_50_Cusvm_4_6 		Length=3.00	Units=m
New  Line.LINE119	Phases=3	Bus1=65.1.2.3	Bus2=6501.1.2.3	LineCode=GPLKh_4_6_Curm_4_2p5 		Length=35.00	Units=m
New  Line.LINE120	Phases=3	Bus1=54.1.2.3	Bus2=66.1.2.3	LineCode=GPLKh_4_50_Cusvm_4_6 		Length=4.00	Units=m
New  Line.LINE121	Phases=3	Bus1=66.1.2.3	Bus2=6601.1.2.3	LineCode=GPLKh_4_6_Curm_4_2p5 		Length=34.00	Units=m
New  Line.LINE122	Phases=3	Bus1=66.1.2.3	Bus2=67.1.2.3	LineCode=GPLKh_4_50_Cusvm_4_6 		Length=5.00	Units=m
New  Line.LINE123	Phases=3	Bus1=67.1.2.3	Bus2=6701.1.2.3	LineCode=GPLKh_4_6_Curm_4_2p5 		Length=12.00	Units=m
New  Line.LINE124	Phases=3	Bus1=67.1.2.3	Bus2=68.1.2.3	LineCode=GPLKh_4_50_Cusvm_4_6 		Length=10.00	Units=m
New  Line.LINE125	Phases=3	Bus1=68.1.2.3	Bus2=6801.1.2.3	LineCode=GPLKh_4_6_Curm_4_2p5 		Length=31.00	Units=m
New  Line.LINE126	Phases=3	Bus1=68.1.2.3	Bus2=69.1.2.3	LineCode=GPLKh_4_50_Cusvm_4_6 		Length=10.00	Units=m
New  Line.LINE127	Phases=3	Bus1=69.1.2.3	Bus2=6901.1.2.3	LineCode=GPLKh_4_6_Curm_4_2p5 		Length=15.00	Units=m
New  Line.LINE128	Phases=3	Bus1=57.1.2.3	Bus2=70.1.2.3	LineCode=GPLKh_4_50_Cusvm_4_6 		Length=3.00	Units=m
New  Line.LINE129	Phases=3	Bus1=70.1.2.3	Bus2=7001.1.2.3	LineCode=GPLKh_4_6_Curm_4_2p5 		Length=21.00	Units=m
New  Line.LINE130	Phases=3	Bus1=62.1.2.3	Bus2=71.1.2.3	LineCode=GPLKh_4_50_Cusvm_4_6 		Length=4.00	Units=m
New  Line.LINE131	Phases=3	Bus1=71.1.2.3	Bus2=7101.1.2.3	LineCode=GPLKh_4_6_Curm_4_2p5 		Length=22.00	Units=m
New  Line.LINE132	Phases=3	Bus1=58.1.2.3	Bus2=72.1.2.3	LineCode=GPLKh_4_50_Cusvm_4_6 		Length=6.00	Units=m
New  Line.LINE133	Phases=3	Bus1=72.1.2.3	Bus2=7201.1.2.3	LineCode=GPLKh_4_6_Curm_4_2p5 		Length=37.00	Units=m
New  Line.LINE134	Phases=3	Bus1=69.1.2.3	Bus2=73.1.2.3	LineCode=GPLKh_4_50_Cusvm_4_6 		Length=2.00	Units=m
New  Line.LINE135	Phases=3	Bus1=73.1.2.3	Bus2=7301.1.2.3	LineCode=GPLKh_4_6_Curm_4_2p5 		Length=21.00	Units=m
New  Line.LINE136	Phases=3	Bus1=50.1.2.3	Bus2=74.1.2.3	LineCode=GPLKh_4_50_Cusvm_4_6 		Length=6.00	Units=m
New  Line.LINE137	Phases=3	Bus1=74.1.2.3	Bus2=7401.1.2.3	LineCode=GPLKh_4_10_Curm_4_2p5 		Length=38.00	Units=m
New  Line.LINE138	Phases=3	Bus1=60.1.2.3	Bus2=75.1.2.3	LineCode=GPLKh_4_50_Cusvm_4_6 		Length=8.00	Units=m
New  Line.LINE139	Phases=3	Bus1=75.1.2.3	Bus2=7501.1.2.3	LineCode=GPLKh_4_10_Curm_4_2p5 		Length=29.00	Units=m
New  Line.LINE140	Phases=3	Bus1=70.1.2.3	Bus2=76.1.2.3	LineCode=GPLKh_4_50_Cusvm_4_6 		Length=4.00	Units=m
New  Line.LINE141	Phases=3	Bus1=76.1.2.3	Bus2=7601.1.2.3	LineCode=GPLKh_4_10_Curm_4_2p5 		Length=28.00	Units=m
New  Line.LINE142	Phases=3	Bus1=3.1.2.3	Bus2=77.1.2.3	LineCode=GPLKh_4_50_Cusvm_4_6 		Length=7.00	Units=m
New  Line.LINE143	Phases=3	Bus1=77.1.2.3	Bus2=7701.1.2.3	LineCode=GPLKh_4_10_Curm_4_2p5 		Length=25.00	Units=m
New  Line.LINE144	Phases=3	Bus1=74.1.2.3	Bus2=78.1.2.3	LineCode=GPLKh_4_50_Cusvm_4_6 		Length=1.00	Units=m
New  Line.LINE145	Phases=3	Bus1=78.1.2.3	Bus2=7801.1.2.3	LineCode=GPLKh_4_10_Curm_4_2p5 		Length=6.00	Units=m
New  Line.LINE146	Phases=3	Bus1=76.1.2.3	Bus2=79.1.2.3	LineCode=GPLKh_4_50_Cusvm_4_6 		Length=9.00	Units=m
New  Line.LINE147	Phases=3	Bus1=79.1.2.3	Bus2=7901.1.2.3	LineCode=GPLKh_4_10_Curm_4_2p5 		Length=2.00	Units=m
New  Line.LINE148	Phases=3	Bus1=72.1.2.3	Bus2=80.1.2.3	LineCode=GPLKh_4_50_Cusvm_4_6 		Length=2.00	Units=m
New  Line.LINE149	Phases=3	Bus1=80.1.2.3	Bus2=8001.1.2.3	LineCode=GPLKh_4_10_Curm_4_2p5 		Length=11.00	Units=m
New  Line.LINE150	Phases=3	Bus1=73.1.2.3	Bus2=81.1.2.3	LineCode=GPLKh_4_50_Cusvm_4_6 		Length=6.00	Units=m
New  Line.LINE151	Phases=3	Bus1=81.1.2.3	Bus2=8101.1.2.3	LineCode=GPLKh_4_10_Curm_4_2p5 		Length=34.00	Units=m
New  Line.LINE152	Phases=3	Bus1=78.1.2.3	Bus2=82.1.2.3	LineCode=GPLKh_4_50_Cusvm_4_6 		Length=2.00	Units=m
New  Line.LINE153	Phases=3	Bus1=82.1.2.3	Bus2=8201.1.2.3	LineCode=GPLKh_4_10_Curm_4_2p5 		Length=35.00	Units=m
New  Line.LINE154	Phases=3	Bus1=82.1.2.3	Bus2=83.1.2.3	LineCode=GPLKh_4_50_Cusvm_4_6 		Length=1.00	Units=m
New  Line.LINE155	Phases=3	Bus1=83.1.2.3	Bus2=8301.1.2.3	LineCode=GPLKh_4_10_Curm_4_2p5 		Length=31.00	Units=m
New  Line.LINE156	Phases=3	Bus1=81.1.2.3	Bus2=84.1.2.3	LineCode=GPLKh_4_50_Cusvm_4_6 		Length=10.00	Units=m
New  Line.LINE157	Phases=3	Bus1=84.1.2.3	Bus2=8401.1.2.3	LineCode=GPLKh_4_10_Curm_4_2p5 		Length=13.00	Units=m
New  Line.LINE158	Phases=3	Bus1=83.1.2.3	Bus2=85.1.2.3	LineCode=GPLKh_4_50_Cusvm_4_6 		Length=5.00	Units=m
New  Line.LINE159	Phases=3	Bus1=85.1.2.3	Bus2=8501.1.2.3	LineCode=GPLKh_4_10_Curm_4_2p5 		Length=24.00	Units=m
New  Line.LINE160	Phases=3	Bus1=84.1.2.3	Bus2=86.1.2.3	LineCode=GPLKh_4_50_Cusvm_4_6 		Length=10.00	Units=m
New  Line.LINE161	Phases=3	Bus1=86.1.2.3	Bus2=8601.1.2.3	LineCode=GPLKh_4_10_Curm_4_2p5 		Length=31.00	Units=m
New  Line.LINE162	Phases=3	Bus1=85.1.2.3	Bus2=87.1.2.3	LineCode=GPLKh_4_50_Cusvm_4_6 		Length=2.00	Units=m
New  Line.LINE163	Phases=3	Bus1=87.1.2.3	Bus2=8701.1.2.3	LineCode=GPLKh_4_10_Curm_4_2p5 		Length=24.00	Units=m
New  Line.LINE164	Phases=3	Bus1=87.1.2.3	Bus2=88.1.2.3	LineCode=GPLKh_4_50_Cusvm_4_6 		Length=1.00	Units=m
New  Line.LINE165	Phases=3	Bus1=88.1.2.3	Bus2=8801.1.2.3	LineCode=GPLKh_4_10_Curm_4_2p5 		Length=17.00	Units=m
New  Line.LINE166	Phases=3	Bus1=75.1.2.3	Bus2=89.1.2.3	LineCode=GPLKh_4_50_Cusvm_4_6 		Length=2.00	Units=m
New  Line.LINE167	Phases=3	Bus1=89.1.2.3	Bus2=8901.1.2.3	LineCode=GPLKh_4_10_Curm_4_2p5 		Length=6.00	Units=m
New  Line.LINE168	Phases=3	Bus1=79.1.2.3	Bus2=90.1.2.3	LineCode=GPLKh_4_50_Cusvm_4_6 		Length=9.00	Units=m
New  Line.LINE169	Phases=3	Bus1=90.1.2.3	Bus2=9001.1.2.3	LineCode=GPLKh_4_10_Curm_4_2p5 		Length=40.00	Units=m
New  Line.LINE170	Phases=3	Bus1=77.1.2.3	Bus2=91.1.2.3	LineCode=GPLKh_4_50_Cusvm_4_6 		Length=12.00	Units=m
New  Line.LINE171	Phases=3	Bus1=91.1.2.3	Bus2=9101.1.2.3	LineCode=GPLKh_4_10_Curm_4_2p5 		Length=19.00	Units=m
New  Line.LINE172	Phases=3	Bus1=65.1.2.3	Bus2=92.1.2.3	LineCode=GPLKh_4_50_Cusvm_4_6 		Length=9.00	Units=m
New  Line.LINE173	Phases=3	Bus1=92.1.2.3	Bus2=9201.1.2.3	LineCode=GPLKh_4_10_Curm_4_2p5 		Length=29.00	Units=m
New  Line.LINE174	Phases=3	Bus1=86.1.2.3	Bus2=93.1.2.3	LineCode=GPLKh_4_50_Cusvm_4_6 		Length=5.00	Units=m
New  Line.LINE175	Phases=3	Bus1=93.1.2.3	Bus2=9301.1.2.3	LineCode=GPLKh_4_10_Curm_4_2p5 		Length=29.00	Units=m
New  Line.LINE176	Phases=3	Bus1=89.1.2.3	Bus2=94.1.2.3	LineCode=GPLKh_4_50_Cusvm_4_6 		Length=1.00	Units=m
New  Line.LINE177	Phases=3	Bus1=94.1.2.3	Bus2=9401.1.2.3	LineCode=GPLKh_4_10_Curm_4_2p5 		Length=10.00	Units=m
New  Line.LINE178	Phases=3	Bus1=80.1.2.3	Bus2=95.1.2.3	LineCode=GPLKh_4_50_Cusvm_4_6 		Length=1.00	Units=m
New  Line.LINE179	Phases=3	Bus1=95.1.2.3	Bus2=9501.1.2.3	LineCode=GPLKh_4_10_Curm_4_2p5 		Length=31.00	Units=m
New  Line.LINE180	Phases=3	Bus1=90.1.2.3	Bus2=96.1.2.3	LineCode=GPLKh_4_50_Cusvm_4_6 		Length=14.00	Units=m
New  Line.LINE181	Phases=3	Bus1=96.1.2.3	Bus2=9601.1.2.3	LineCode=GPLKh_4_10_Curm_4_2p5 		Length=10.00	Units=m
New  Line.LINE182	Phases=3	Bus1=88.1.2.3	Bus2=97.1.2.3	LineCode=GPLKh_4_50_Cusvm_4_6 		Length=3.00	Units=m
New  Line.LINE183	Phases=3	Bus1=97.1.2.3	Bus2=9701.1.2.3	LineCode=GPLKh_4_10_Curm_4_2p5 		Length=25.00	Units=m
