DSSFiles_Dutch/DutchFeederLoads.dss
New  Load.USER1	Bus1=301.1	Phases=1	Conn=wye	Model=1	kV=0.230	kW=1.0	PF=0.98	Vmaxpu=1.15	Vminpu=0.90
New  Load.USER2	Bus1=701.2	Phases=1	Conn=wye	Model=1	kV=0.230	kW=1.0	PF=0.98	Vmaxpu=1.15	Vminpu=0.90
New  Load.USER3	Bus1=801.3	Phases=1	Conn=wye	Model=1	kV=0.230	kW=1.0	PF=0.98	Vmaxpu=1.15	Vminpu=0.90
New  Load.USER4	Bus1=1301.2	Phases=1	Conn=wye	Model=1	kV=0.230	kW=1.0	PF=0.98	Vmaxpu=1.15	Vminpu=0.90
New  Load.USER5	Bus1=1401.1	Phases=1	Conn=wye	Model=1	kV=0.230	kW=1.0	PF=0.98	Vmaxpu=1.15	Vminpu=0.90
New  Load.USER6	Bus1=1501.3	Phases=1	Conn=wye	Model=1	kV=0.230	kW=1.0	PF=0.98	Vmaxpu=1.15	Vminpu=0.90
New  Load.USER7	Bus1=1701.2	Phases=1	Conn=wye	Model=1	kV=0.230	kW=1.0	PF=0.98	Vmaxpu=1.15	Vminpu=0.90
New  Load.USER8	Bus1=1801.1	Phases=1	Conn=wye	Model=1	kV=0.230	kW=1.0	PF=0.98	Vmaxpu=1.15	Vminpu=0.90
New  Load.USER9	Bus1=1901.1	Phases=1	Conn=wye	Model=1	kV=0.230	kW=1.0	PF=0.98	Vmaxpu=1.15	Vminpu=0.90
New  Load.USER10	Bus1=2001.3	Phases=1	Conn=wye	Model=1	kV=0.230	kW=1.0	PF=0.98	Vmaxpu=1.15	Vminpu=0.90
New  Load.USER11	Bus1=2101.2	Phases=1	Conn=wye	Model=1	kV=0.230	kW=1.0	PF=0.98	Vmaxpu=1.15	Vminpu=0.90
New  Load.USER12	Bus1=2201.2	Phases=1	Conn=wye	Model=1	kV=0.230	kW=1.0	PF=0.98	Vmaxpu=1.15	Vminpu=0.90
New  Load.USER13	Bus1=2301.1	Phases=1	Conn=wye	Model=1	kV=0.230	kW=1.0	PF=0.98	Vmaxpu=1.15	Vminpu=0.90
New  Load.USER14	Bus1=2401.1	Phases=1	Conn=wye	Model=1	kV=0.230	kW=1.0	PF=0.98	Vmaxpu=1.15	Vminpu=0.90
New  Load.USER15	Bus1=2501.3	Phases=1	Conn=wye	Model=1	kV=0.230	kW=1.0	PF=0.98	Vmaxpu=1.15	Vminpu=0.90
New  Load.USER16	Bus1=2601.3	Phases=1	Conn=wye	Model=1	kV=0.230	kW=1.0	PF=0.98	Vmaxpu=1.15	Vminpu=0.90
New  Load.USER17	Bus1=2701.2	Phases=1	Conn=wye	Model=1	kV=0.230	kW=1.0	PF=0.98	Vmaxpu=1.15	Vminpu=0.90
New  Load.USER18	Bus1=2801.3	Phases=1	Conn=wye	Model=1	kV=0.230	kW=1.0	PF=0.98	Vmaxpu=1.15	Vminpu=0.90
New  Load.USER19	Bus1=2901.2	Phases=1	Conn=wye	Model=1	kV=0.230	kW=1.0	PF=0.98	Vmaxpu=1.15	Vminpu=0.90
New  Load.USER20	Bus1=3001.2	Phases=1	Conn=wye	Model=1	kV=0.230	kW=1.0	PF=0.98	Vmaxpu=1.15	Vminpu=0.90
New  Load.USER21	Bus1=3101.3	Phases=1	Conn=wye	Model=1	kV=0.230	kW=1.0	PF=0.98	Vmaxpu=1.15	Vminpu=0.90
New  Load.USER22	Bus1=3201.1	Phases=1	Conn=wye	Model=1	kV=0.230	kW=1.0	PF=0.98	Vmaxpu=1.15	Vminpu=0.90
New  Load.USER23	Bus1=3301.3	Phases=1	Conn=wye	Model=1	kV=0.230	kW=1.0	PF=0.98	Vmaxpu=1.15	Vminpu=0.90
New  Load.USER24	Bus1=3401.3	Phases=1	Conn=wye	Model=1	kV=0.230	kW=1.0	PF=0.98	Vmaxpu=1.15	Vminpu=0.90
New  Load.USER25	Bus1=3501.3	Phases=1	Conn=wye	Model=1	kV=0.230	kW=1.0	PF=0.98	Vmaxpu=1.15	Vminpu=0.90
New  Load.USER26	Bus1=3601.1	Phases=1	Conn=wye	Model=1	kV=0.230	kW=1.0	PF=0.98	Vmaxpu=1.15	Vminpu=0.90
New  Load.USER27	Bus1=3701.1	Phases=1	Conn=wye	Model=1	kV=0.230	kW=1.0	PF=0.98	Vmaxpu=1.15	Vminpu=0.90
New  Load.USER28	Bus1=3801.1	Phases=1	Conn=wye	Model=1	kV=0.230	kW=1.0	PF=0.98	Vmaxpu=1.15	Vminpu=0.90
New  Load.USER29	Bus1=3901.1	Phases=1	Conn=wye	Model=1	kV=0.230	kW=1.0	PF=0.98	Vmaxpu=1.15	Vminpu=0.90
New  Load.USER30	Bus1=4001.1	Phases=1	Conn=wye	Model=1	kV=0.230	kW=1.0	PF=0.98	Vmaxpu=1.15	Vminpu=0.90
New  Load.USER31	Bus1=4101.2	Phases=1	Conn=wye	Model=1	kV=0.230	kW=1.0	PF=0.98	Vmaxpu=1.15	Vminpu=0.90
New  Load.USER32	Bus1=4201.3	Phases=1	Conn=wye	Model=1	kV=0.230	kW=1.0	PF=0.98	Vmaxpu=1.15	Vminpu=0.90
New  Load.USER33	Bus1=4301.2	Phases=1	Conn=wye	Model=1	kV=0.230	kW=1.0	PF=0.98	Vmaxpu=1.15	Vminpu=0.90
New  Load.USER34	Bus1=4401.3	Phases=1	Conn=wye	Model=1	kV=0.230	kW=1.0	PF=0.98	Vmaxpu=1.15	Vminpu=0.90
New  Load.USER35	Bus1=4501.2	Phases=1	Conn=wye	Model=1	kV=0.230	kW=1.0	PF=0.98	Vmaxpu=1.15	Vminpu=0.90
New  Load.USER36	Bus1=4601.1	Phases=1	Conn=wye	Model=1	kV=0.230	kW=1.0	PF=0.98	Vmaxpu=1.15	Vminpu=0.90
New  Load.USER37	Bus1=4701.2	Phases=1	Conn=wye	Model=1	kV=0.230	kW=1.0	PF=0.98	Vmaxpu=1.15	Vminpu=0.90
New  Load.USER38	Bus1=4801.2	Phases=1	Conn=wye	Model=1	kV=0.230	kW=1.0	PF=0.98	Vmaxpu=1.15	Vminpu=0.90
New  Load.USER39	Bus1=4901.1	Phases=1	Conn=wye	Model=1	kV=0.230	kW=1.0	PF=0.98	Vmaxpu=1.15	Vminpu=0.90
New  Load.USER40	Bus1=5001.3	Phases=1	Conn=wye	Model=1	kV=0.230	kW=1.0	PF=0.98	Vmaxpu=1.15	Vminpu=0.90
New  Load.USER41	Bus1=5101.2	Phases=1	Conn=wye	Model=1	kV=0.230	kW=1.0	PF=0.98	Vmaxpu=1.15	Vminpu=0.90
New  Load.USER42	Bus1=5201.1	Phases=1	Conn=wye	Model=1	kV=0.230	kW=1.0	PF=0.98	Vmaxpu=1.15	Vminpu=0.90
New  Load.USER43	Bus1=5301.2	Phases=1	Conn=wye	Model=1	kV=0.230	kW=1.0	PF=0.98	Vmaxpu=1.15	Vminpu=0.90
New  Load.USER44	Bus1=5401.1	Phases=1	Conn=wye	Model=1	kV=0.230	kW=1.0	PF=0.98	Vmaxpu=1.15	Vminpu=0.90
New  Load.USER45	Bus1=5501.2	Phases=1	Conn=wye	Model=1	kV=0.230	kW=1.0	PF=0.98	Vmaxpu=1.15	Vminpu=0.90
New  Load.USER46	Bus1=5601.2	Phases=1	Conn=wye	Model=1	kV=0.230	kW=1.0	PF=0.98	Vmaxpu=1.15	Vminpu=0.90
New  Load.USER47	Bus1=5701.2	Phases=1	Conn=wye	Model=1	kV=0.230	kW=1.0	PF=0.98	Vmaxpu=1.15	Vminpu=0.90
New  Load.USER48	Bus1=5801.3	Phases=1	Conn=wye	Model=1	kV=0.230	kW=1.0	PF=0.98	Vmaxpu=1.15	Vminpu=0.90
New  Load.USER49	Bus1=5901.3	Phases=1	Conn=wye	Model=1	kV=0.230	kW=1.0	PF=0.98	Vmaxpu=1.15	Vminpu=0.90
New  Load.USER50	Bus1=6001.2	Phases=1	Conn=wye	Model=1	kV=0.230	kW=1.0	PF=0.98	Vmaxpu=1.15	Vminpu=0.90
New  Load.USER51	Bus1=6101.3	Phases=1	Conn=wye	Model=1	kV=0.230	kW=1.0	PF=0.98	Vmaxpu=1.15	Vminpu=0.90
New  Load.USER52	Bus1=6201.1	Phases=1	Conn=wye	Model=1	kV=0.230	kW=1.0	PF=0.98	Vmaxpu=1.15	Vminpu=0.90
New  Load.USER53	Bus1=6301.2	Phases=1	Conn=wye	Model=1	kV=0.230	kW=1.0	PF=0.98	Vmaxpu=1.15	Vminpu=0.90
New  Load.USER54	Bus1=6401.3	Phases=1	Conn=wye	Model=1	kV=0.230	kW=1.0	PF=0.98	Vmaxpu=1.15	Vminpu=0.90
New  Load.USER55	Bus1=6501.1	Phases=1	Conn=wye	Model=1	kV=0.230	kW=1.0	PF=0.98	Vmaxpu=1.15	Vminpu=0.90
New  Load.USER56	Bus1=6601.3	Phases=1	Conn=wye	Model=1	kV=0.230	kW=1.0	PF=0.98	Vmaxpu=1.15	Vminpu=0.90
New  Load.USER57	Bus1=6701.3	Phases=1	Conn=wye	Model=1	kV=0.230	kW=1.0	PF=0.98	Vmaxpu=1.15	Vminpu=0.90
New  Load.USER58	Bus1=6801.3	Phases=1	Conn=wye	Model=1	kV=0.230	kW=1.0	PF=0.98	Vmaxpu=1.15	Vminpu=0.90
New  Load.USER59	Bus1=6901.2	Phases=1	Conn=wye	Model=1	kV=0.230	kW=1.0	PF=0.98	Vmaxpu=1.15	Vminpu=0.90
New  Load.USER60	Bus1=7001.3	Phases=1	Conn=wye	Model=1	kV=0.230	kW=1.0	PF=0.98	Vmaxpu=1.15	Vminpu=0.90
New  Load.USER61	Bus1=7101.2	Phases=1	Conn=wye	Model=1	kV=0.230	kW=1.0	PF=0.98	Vmaxpu=1.15	Vminpu=0.90
New  Load.USER62	Bus1=7201.1	Phases=1	Conn=wye	Model=1	kV=0.230	kW=1.0	PF=0.98	Vmaxpu=1.15	Vminpu=0.90
New  Load.USER63	Bus1=7301.2	Phases=1	Conn=wye	Model=1	kV=0.230	kW=1.0	PF=0.98	Vmaxpu=1.15	Vminpu=0.90
New  Load.USER64	Bus1=7401.1	Phases=1	Conn=wye	Model=1	kV=0.230	kW=1.0	PF=0.98	Vmaxpu=1.15	Vminpu=0.90
New  Load.USER65	Bus1=7501.3	Phases=1	Conn=wye	Model=1	kV=0.230	kW=1.0	PF=0.98	Vmaxpu=1.15	Vminpu=0.90
New  Load.USER66	Bus1=7601.1	Phases=1	Conn=wye	Model=1	kV=0.230	kW=1.0	PF=0.98	Vmaxpu=1.15	Vminpu=0.90
New  Load.USER67	Bus1=7701.2	Phases=1	Conn=wye	Model=1	kV=0.230	kW=1.0	PF=0.98	Vmaxpu=1.15	Vminpu=0.90
New  Load.USER68	Bus1=7801.2	Phases=1	Conn=wye	Model=1	kV=0.230	kW=1.0	PF=0.98	Vmaxpu=1.15	Vminpu=0.90
New  Load.USER69	Bus1=7901.1	Phases=1	Conn=wye	Model=1	kV=0.230	kW=1.0	PF=0.98	Vmaxpu=1.15	Vminpu=0.90
New  Load.USER70	Bus1=8001.2	Phases=1	Conn=wye	Model=1	kV=0.230	kW=1.0	PF=0.98	Vmaxpu=1.15	Vminpu=0.90
New  Load.USER71	Bus1=8101.1	Phases=1	Conn=wye	Model=1	kV=0.230	kW=1.0	PF=0.98	Vmaxpu=1.15	Vminpu=0.90
New  Load.USER72	Bus1=8201.3	Phases=1	Conn=wye	Model=1	kV=0.230	kW=1.0	PF=0.98	Vmaxpu=1.15	Vminpu=0.90
New  Load.USER73	Bus1=8301.3	Phases=1	Conn=wye	Model=1	kV=0.230	kW=1.0	PF=0.98	Vmaxpu=1.15	Vminpu=0.90
New  Load.USER74	Bus1=8401.3	Phases=1	Conn=wye	Model=1	kV=0.230	kW=1.0	PF=0.98	Vmaxpu=1.15	Vminpu=0.90
New  Load.USER75	Bus1=8501.1	Phases=1	Conn=wye	Model=1	kV=0.230	kW=1.0	PF=0.98	Vmaxpu=1.15	Vminpu=0.90
New  Load.USER76	Bus1=8601.3	Phases=1	Conn=wye	Model=1	kV=0.230	kW=1.0	PF=0.98	Vmaxpu=1.15	Vminpu=0.90
New  Load.USER77	Bus1=8701.1	Phases=1	Conn=wye	Model=1	kV=0.230	kW=1.0	PF=0.98	Vmaxpu=1.15	Vminpu=0.90
New  Load.USER78	Bus1=8801.3	Phases=1	Conn=wye	Model=1	kV=0.230	kW=1.0	PF=0.98	Vmaxpu=1.15	Vminpu=0.90
New  Load.USER79	Bus1=8901.1	Phases=1	Conn=wye	Model=1	kV=0.230	kW=1.0	PF=0.98	Vmaxpu=1.15	Vminpu=0.90
New  Load.USER80	Bus1=9001.2	Phases=1	Conn=wye	Model=1	kV=0.230	kW=1.0	PF=0.98	Vmaxpu=1.15	Vminpu=0.90
New  Load.USER81	Bus1=9101.1	Phases=1	Conn=wye	Model=1	kV=0.230	kW=1.0	PF=0.98	Vmaxpu=1.15	Vminpu=0.90
New  Load.USER82	Bus1=9201.1	Phases=1	Conn=wye	Model=1	kV=0.230	kW=1.0	PF=0.98	Vmaxpu=1.15	Vminpu=0.90
New  Load.USER83	Bus1=9301.3	Phases=1	Conn=wye	Model=1	kV=0.230	kW=1.0	PF=0.98	Vmaxpu=1.15	Vminpu=0.90
New  Load.USER84	Bus1=9401.2	Phases=1	Conn=wye	Model=1	kV=0.230	kW=1.0	PF=0.98	Vmaxpu=1.15	Vminpu=0.90
New  Load.USER85	Bus1=9501.2	Phases=1	Conn=wye	Model=1	kV=0.230	kW=1.0	PF=0.98	Vmaxpu=1.15	Vminpu=0.90
New  Load.USER86	Bus1=9601.1	Phases=1	Conn=wye	Model=1	kV=0.230	kW=1.0	PF=0.98	Vmaxpu=1.15	Vminpu=0.90
New  Load.USER87	Bus1=9701.3	Phases=1	Conn=wye	Model=1	kV=0.230	kW=1.0	PF=0.98	Vmaxpu=1.15	Vminpu=0.90
