DSSFiles_Dutch/DutchFeederGenerators.dss
New  Generator.PVUSER1	Bus1=301.1	Phases=1	Conn=wye	Model=1	kV=0.230	kW=1.0	kvar=0.0	Vmaxpu=1.15	Vminpu=0.90
New  Generator.PVUSER2	Bus1=701.2	Phases=1	Conn=wye	Model=1	kV=0.230	kW=1.0	kvar=0.0	Vmaxpu=1.15	Vminpu=0.90
New  Generator.PVUSER3	Bus1=801.3	Phases=1	Conn=wye	Model=1	kV=0.230	kW=1.0	kvar=0.0	Vmaxpu=1.15	Vminpu=0.90
New  Generator.PVUSER4	Bus1=1301.2	Phases=1	Conn=wye	Model=1	kV=0.230	kW=1.0	kvar=0.0	Vmaxpu=1.15	Vminpu=0.90
New  Generator.PVUSER5	Bus1=1401.1	Phases=1	Conn=wye	Model=1	kV=0.230	kW=1.0	kvar=0.0	Vmaxpu=1.15	Vminpu=0.90
New  Generator.PVUSER6	Bus1=1501.3	Phases=1	Conn=wye	Model=1	kV=0.230	kW=1.0	kvar=0.0	Vmaxpu=1.15	Vminpu=0.90
New  Generator.PVUSER7	Bus1=1701.2	Phases=1	Conn=wye	Model=1	kV=0.230	kW=1.0	kvar=0.0	Vmaxpu=1.15	Vminpu=0.90
New  Generator.PVUSER8	Bus1=1801.1	Phases=1	Conn=wye	Model=1	kV=0.230	kW=1.0	kvar=0.0	Vmaxpu=1.15	Vminpu=0.90
New  Generator.PVUSER9	Bus1=1901.1	Phases=1	Conn=wye	Model=1	kV=0.230	kW=1.0	kvar=0.0	Vmaxpu=1.15	Vminpu=0.90
New  Generator.PVUSER10	Bus1=2001.3	Phases=1	Conn=wye	Model=1	kV=0.230	kW=1.0	kvar=0.0	Vmaxpu=1.15	Vminpu=0.90
New  Generator.PVUSER11	Bus1=2101.2	Phases=1	Conn=wye	Model=1	kV=0.230	kW=1.0	kvar=0.0	Vmaxpu=1.15	Vminpu=0.90
New  Generator.PVUSER12	Bus1=2201.2	Phases=1	Conn=wye	Model=1	kV=0.230	kW=1.0	kvar=0.0	Vmaxpu=1.15	Vminpu=0.90
New  Generator.PVUSER13	Bus1=2301.1	Phases=1	Conn=wye	Model=1	kV=0.230	kW=1.0	kvar=0.0	Vmaxpu=1.15	Vminpu=0.90
New  Generator.PVUSER14	Bus1=2401.1	Phases=1	Conn=wye	Model=1	kV=0.230	kW=1.0	kvar=0.0	Vmaxpu=1.15	Vminpu=0.90
New  Generator.PVUSER15	Bus1=2501.3	Phases=1	Conn=wye	Model=1	kV=0.230	kW=1.0	kvar=0.0	Vmaxpu=1.15	Vminpu=0.90
New  Generator.PVUSER16	Bus1=2601.3	Phases=1	Conn=wye	Model=1	kV=0.230	kW=1.0	kvar=0.0	Vmaxpu=1.15	Vminpu=0.90
New  Generator.PVUSER17	Bus1=2701.2	Phases=1	Conn=wye	Model=1	kV=0.230	kW=1.0	kvar=0.0	Vmaxpu=1.15	Vminpu=0.90
New  Generator.PVUSER18	Bus1=2801.3	Phases=1	Conn=wye	Model=1	kV=0.230	kW=1.0	kvar=0.0	Vmaxpu=1.15	Vminpu=0.90
New  Generator.PVUSER19	Bus1=2901.2	Phases=1	Conn=wye	Model=1	kV=0.230	kW=1.0	kvar=0.0	Vmaxpu=1.15	Vminpu=0.90
New  Generator.PVUSER20	Bus1=3001.2	Phases=1	Conn=wye	Model=1	kV=0.230	kW=1.0	kvar=0.0	Vmaxpu=1.15	Vminpu=0.90
New  Generator.PVUSER21	Bus1=3101.3	Phases=1	Conn=wye	Model=1	kV=0.230	kW=1.0	kvar=0.0	Vmaxpu=1.15	Vminpu=0.90
New  Generator.PVUSER22	Bus1=3201.1	Phases=1	Conn=wye	Model=1	kV=0.230	kW=1.0	kvar=0.0	Vmaxpu=1.15	Vminpu=0.90
New  Generator.PVUSER23	Bus1=3301.3	Phases=1	Conn=wye	Model=1	kV=0.230	kW=1.0	kvar=0.0	Vmaxpu=1.15	Vminpu=0.90
New  Generator.PVUSER24	Bus1=3401.3	Phases=1	Conn=wye	Model=1	kV=0.230	kW=1.0	kvar=0.0	Vmaxpu=1.15	Vminpu=0.90
New  Generator.PVUSER25	Bus1=3501.3	Phases=1	Conn=wye	Model=1	kV=0.230	kW=1.0	kvar=0.0	Vmaxpu=1.15	Vminpu=0.90
New  Generator.PVUSER26	Bus1=3601.1	Phases=1	Conn=wye	Model=1	kV=0.230	kW=1.0	kvar=0.0	Vmaxpu=1.15	Vminpu=0.90
New  Generator.PVUSER27	Bus1=3701.1	Phases=1	Conn=wye	Model=1	kV=0.230	kW=1.0	kvar=0.0	Vmaxpu=1.15	Vminpu=0.90
New  Generator.PVUSER28	Bus1=3801.1	Phases=1	Conn=wye	Model=1	kV=0.230	kW=1.0	kvar=0.0	Vmaxpu=1.15	Vminpu=0.90
New  Generator.PVUSER29	Bus1=3901.1	Phases=1	Conn=wye	Model=1	kV=0.230	kW=1.0	kvar=0.0	Vmaxpu=1.15	Vminpu=0.90
New  Generator.PVUSER30	Bus1=4001.1	Phases=1	Conn=wye	Model=1	kV=0.230	kW=1.0	kvar=0.0	Vmaxpu=1.15	Vminpu=0.90
New  Generator.PVUSER31	Bus1=4101.2	Phases=1	Conn=wye	Model=1	kV=0.230	kW=1.0	kvar=0.0	Vmaxpu=1.15	Vminpu=0.90
New  Generator.PVUSER32	Bus1=4201.3	Phases=1	Conn=wye	Model=1	kV=0.230	kW=1.0	kvar=0.0	Vmaxpu=1.15	Vminpu=0.90
New  Generator.PVUSER33	Bus1=4301.2	Phases=1	Conn=wye	Model=1	kV=0.230	kW=1.0	kvar=0.0	Vmaxpu=1.15	Vminpu=0.90
New  Generator.PVUSER34	Bus1=4401.3	Phases=1	Conn=wye	Model=1	kV=0.230	kW=1.0	kvar=0.0	Vmaxpu=1.15	Vminpu=0.90
New  Generator.PVUSER35	Bus1=4501.2	Phases=1	Conn=wye	Model=1	kV=0.230	kW=1.0	kvar=0.0	Vmaxpu=1.15	Vminpu=0.90
New  Generator.PVUSER36	Bus1=4601.1	Phases=1	Conn=wye	Model=1	kV=0.230	kW=1.0	kvar=0.0	Vmaxpu=1.15	Vminpu=0.90
New  Generator.PVUSER37	Bus1=4701.2	Phases=1	Conn=wye	Model=1	kV=0.230	kW=1.0	kvar=0.0	Vmaxpu=1.15	Vminpu=0.90
New  Generator.PVUSER38	Bus1=4801.2	Phases=1	Conn=wye	Model=1	kV=0.230	kW=1.0	kvar=0.0	Vmaxpu=1.15	Vminpu=0.90
New  Generator.PVUSER39	Bus1=4901.1	Phases=1	Conn=wye	Model=1	kV=0.230	kW=1.0	kvar=0.0	Vmaxpu=1.15	Vminpu=0.90
New  Generator.PVUSER40	Bus1=5001.3	Phases=1	Conn=wye	Model=1	kV=0.230	kW=1.0	kvar=0.0	Vmaxpu=1.15	Vminpu=0.90
New  Generator.PVUSER41	Bus1=5101.2	Phases=1	Conn=wye	Model=1	kV=0.230	kW=1.0	kvar=0.0	Vmaxpu=1.15	Vminpu=0.90
New  Generator.PVUSER42	Bus1=5201.1	Phases=1	Conn=wye	Model=1	kV=0.230	kW=1.0	kvar=0.0	Vmaxpu=1.15	Vminpu=0.90
New  Generator.PVUSER43	Bus1=5301.2	Phases=1	Conn=wye	Model=1	kV=0.230	kW=1.0	kvar=0.0	Vmaxpu=1.15	Vminpu=0.90
New  Generator.PVUSER44	Bus1=5401.1	Phases=1	Conn=wye	Model=1	kV=0.230	kW=1.0	kvar=0.0	Vmaxpu=1.15	Vminpu=0.90
New  Generator.PVUSER45	Bus1=5501.2	Phases=1	Conn=wye	Model=1	kV=0.230	kW=1.0	kvar=0.0	Vmaxpu=1.15	Vminpu=0.90
New  Generator.PVUSER46	Bus1=5601.2	Phases=1	Conn=wye	Model=1	kV=0.230	kW=1.0	kvar=0.0	Vmaxpu=1.15	Vminpu=0.90
New  Generator.PVUSER47	Bus1=5701.2	Phases=1	Conn=wye	Model=1	kV=0.230	kW=1.0	kvar=0.0	Vmaxpu=1.15	Vminpu=0.90
New  Generator.PVUSER48	Bus1=5801.3	Phases=1	Conn=wye	Model=1	kV=0.230	kW=1.0	kvar=0.0	Vmaxpu=1.15	Vminpu=0.90
New  Generator.PVUSER49	Bus1=5901.3	Phases=1	Conn=wye	Model=1	kV=0.230	kW=1.0	kvar=0.0	Vmaxpu=1.15	Vminpu=0.90
New  Generator.PVUSER50	Bus1=6001.2	Phases=1	Conn=wye	Model=1	kV=0.230	kW=1.0	kvar=0.0	Vmaxpu=1.15	Vminpu=0.90
New  Generator.PVUSER51	Bus1=6101.3	Phases=1	Conn=wye	Model=1	kV=0.230	kW=1.0	kvar=0.0	Vmaxpu=1.15	Vminpu=0.90
New  Generator.PVUSER52	Bus1=6201.1	Phases=1	Conn=wye	Model=1	kV=0.230	kW=1.0	kvar=0.0	Vmaxpu=1.15	Vminpu=0.90
New  Generator.PVUSER53	Bus1=6301.2	Phases=1	Conn=wye	Model=1	kV=0.230	kW=1.0	kvar=0.0	Vmaxpu=1.15	Vminpu=0.90
New  Generator.PVUSER54	Bus1=6401.3	Phases=1	Conn=wye	Model=1	kV=0.230	kW=1.0	kvar=0.0	Vmaxpu=1.15	Vminpu=0.90
New  Generator.PVUSER55	Bus1=6501.1	Phases=1	Conn=wye	Model=1	kV=0.230	kW=1.0	kvar=0.0	Vmaxpu=1.15	Vminpu=0.90
New  Generator.PVUSER56	Bus1=6601.3	Phases=1	Conn=wye	Model=1	kV=0.230	kW=1.0	kvar=0.0	Vmaxpu=1.15	Vminpu=0.90
New  Generator.PVUSER57	Bus1=6701.3	Phases=1	Conn=wye	Model=1	kV=0.230	kW=1.0	kvar=0.0	Vmaxpu=1.15	Vminpu=0.90
New  Generator.PVUSER58	Bus1=6801.3	Phases=1	Conn=wye	Model=1	kV=0.230	kW=1.0	kvar=0.0	Vmaxpu=1.15	Vminpu=0.90
New  Generator.PVUSER59	Bus1=6901.2	Phases=1	Conn=wye	Model=1	kV=0.230	kW=1.0	kvar=0.0	Vmaxpu=1.15	Vminpu=0.90
New  Generator.PVUSER60	Bus1=7001.3	Phases=1	Conn=wye	Model=1	kV=0.230	kW=1.0	kvar=0.0	Vmaxpu=1.15	Vminpu=0.90
New  Generator.PVUSER61	Bus1=7101.2	Phases=1	Conn=wye	Model=1	kV=0.230	kW=1.0	kvar=0.0	Vmaxpu=1.15	Vminpu=0.90
New  Generator.PVUSER62	Bus1=7201.1	Phases=1	Conn=wye	Model=1	kV=0.230	kW=1.0	kvar=0.0	Vmaxpu=1.15	Vminpu=0.90
New  Generator.PVUSER63	Bus1=7301.2	Phases=1	Conn=wye	Model=1	kV=0.230	kW=1.0	kvar=0.0	Vmaxpu=1.15	Vminpu=0.90
New  Generator.PVUSER64	Bus1=7401.1	Phases=1	Conn=wye	Model=1	kV=0.230	kW=1.0	kvar=0.0	Vmaxpu=1.15	Vminpu=0.90
New  Generator.PVUSER65	Bus1=7501.3	Phases=1	Conn=wye	Model=1	kV=0.230	kW=1.0	kvar=0.0	Vmaxpu=1.15	Vminpu=0.90
New  Generator.PVUSER66	Bus1=7601.1	Phases=1	Conn=wye	Model=1	kV=0.230	kW=1.0	kvar=0.0	Vmaxpu=1.15	Vminpu=0.90
New  Generator.PVUSER67	Bus1=7701.2	Phases=1	Conn=wye	Model=1	kV=0.230	kW=1.0	kvar=0.0	Vmaxpu=1.15	Vminpu=0.90
New  Generator.PVUSER68	Bus1=7801.2	Phases=1	Conn=wye	Model=1	kV=0.230	kW=1.0	kvar=0.0	Vmaxpu=1.15	Vminpu=0.90
New  Generator.PVUSER69	Bus1=7901.1	Phases=1	Conn=wye	Model=1	kV=0.230	kW=1.0	kvar=0.0	Vmaxpu=1.15	Vminpu=0.90
New  Generator.PVUSER70	Bus1=8001.2	Phases=1	Conn=wye	Model=1	kV=0.230	kW=1.0	kvar=0.0	Vmaxpu=1.15	Vminpu=0.90
New  Generator.PVUSER71	Bus1=8101.1	Phases=1	Conn=wye	Model=1	kV=0.230	kW=1.0	kvar=0.0	Vmaxpu=1.15	Vminpu=0.90
New  Generator.PVUSER72	Bus1=8201.3	Phases=1	Conn=wye	Model=1	kV=0.230	kW=1.0	kvar=0.0	Vmaxpu=1.15	Vminpu=0.90
New  Generator.PVUSER73	Bus1=8301.3	Phases=1	Conn=wye	Model=1	kV=0.230	kW=1.0	kvar=0.0	Vmaxpu=1.15	Vminpu=0.90
New  Generator.PVUSER74	Bus1=8401.3	Phases=1	Conn=wye	Model=1	kV=0.230	kW=1.0	kvar=0.0	Vmaxpu=1.15	Vminpu=0.90
New  Generator.PVUSER75	Bus1=8501.1	Phases=1	Conn=wye	Model=1	kV=0.230	kW=1.0	kvar=0.0	Vmaxpu=1.15	Vminpu=0.90
New  Generator.PVUSER76	Bus1=8601.3	Phases=1	Conn=wye	Model=1	kV=0.230	kW=1.0	kvar=0.0	Vmaxpu=1.15	Vminpu=0.90
New  Generator.PVUSER77	Bus1=8701.1	Phases=1	Conn=wye	Model=1	kV=0.230	kW=1.0	kvar=0.0	Vmaxpu=1.15	Vminpu=0.90
New  Generator.PVUSER78	Bus1=8801.3	Phases=1	Conn=wye	Model=1	kV=0.230	kW=1.0	kvar=0.0	Vmaxpu=1.15	Vminpu=0.90
New  Generator.PVUSER79	Bus1=8901.1	Phases=1	Conn=wye	Model=1	kV=0.230	kW=1.0	kvar=0.0	Vmaxpu=1.15	Vminpu=0.90
New  Generator.PVUSER80	Bus1=9001.2	Phases=1	Conn=wye	Model=1	kV=0.230	kW=1.0	kvar=0.0	Vmaxpu=1.15	Vminpu=0.90
New  Generator.PVUSER81	Bus1=9101.1	Phases=1	Conn=wye	Model=1	kV=0.230	kW=1.0	kvar=0.0	Vmaxpu=1.15	Vminpu=0.90
New  Generator.PVUSER82	Bus1=9201.1	Phases=1	Conn=wye	Model=1	kV=0.230	kW=1.0	kvar=0.0	Vmaxpu=1.15	Vminpu=0.90
New  Generator.PVUSER83	Bus1=9301.3	Phases=1	Conn=wye	Model=1	kV=0.230	kW=1.0	kvar=0.0	Vmaxpu=1.15	Vminpu=0.90
New  Generator.PVUSER84	Bus1=9401.2	Phases=1	Conn=wye	Model=1	kV=0.230	kW=1.0	kvar=0.0	Vmaxpu=1.15	Vminpu=0.90
New  Generator.PVUSER85	Bus1=9501.2	Phases=1	Conn=wye	Model=1	kV=0.230	kW=1.0	kvar=0.0	Vmaxpu=1.15	Vminpu=0.90
New  Generator.PVUSER86	Bus1=9601.1	Phases=1	Conn=wye	Model=1	kV=0.230	kW=1.0	kvar=0.0	Vmaxpu=1.15	Vminpu=0.90
New  Generator.PVUSER87	Bus1=9701.3	Phases=1	Conn=wye	Model=1	kV=0.230	kW=1.0	kvar=0.0	Vmaxpu=1.15	Vminpu=0.90
